Version 4.1
SHEET 1 948 680
WIRE 800 0 800 -48
WIRE 592 32 592 0
WIRE 320 96 320 80
WIRE 592 128 592 112
WIRE 592 128 512 128
WIRE 800 128 800 80
WIRE 800 128 704 128
WIRE 320 144 320 96
WIRE 592 144 592 128
WIRE 800 144 800 128
WIRE 240 160 224 160
WIRE 272 160 240 160
WIRE -560 192 -560 160
WIRE -448 192 -448 160
WIRE 384 192 320 192
WIRE 400 192 384 192
WIRE 592 192 528 192
WIRE 864 192 800 192
WIRE 880 192 864 192
WIRE 128 224 128 192
WIRE 704 224 704 128
WIRE 704 224 640 224
WIRE 752 224 704 224
WIRE 416 240 320 240
WIRE 592 240 416 240
WIRE -560 304 -560 272
WIRE -448 304 -448 272
WIRE 128 320 128 304
WIRE 208 320 128 320
WIRE 128 336 128 320
WIRE 416 336 416 240
WIRE 800 336 800 240
WIRE 64 384 48 384
WIRE 128 384 64 384
WIRE 480 384 416 384
WIRE 496 384 480 384
WIRE 864 384 800 384
WIRE 880 384 864 384
WIRE 208 416 208 320
WIRE 208 416 176 416
WIRE 368 416 208 416
WIRE 752 416 368 416
WIRE 128 480 128 432
WIRE 416 480 416 432
WIRE 800 480 800 432
FLAG 480 384 0
FLAG 320 96 vdd
FLAG 384 192 vdd
FLAG -448 304 0
FLAG -560 304 0
FLAG -560 160 vin
FLAG -448 160 vdd
FLAG 64 384 0
FLAG 128 480 0
FLAG 416 480 0
FLAG 240 160 vin
FLAG 128 192 vdd
FLAG 528 192 0
FLAG 864 384 0
FLAG 800 480 0
FLAG 864 192 0
FLAG 592 0 vdd
FLAG 800 -48 vdd
FLAG 512 128 vout
SYMBOL nmos4 368 336 R0
SYMATTR InstName M2
SYMATTR Value n_65
SYMATTR Value2 l=200n w=10u
SYMBOL pmos4 272 240 M180
SYMATTR InstName M1
SYMATTR Value p_65
SYMATTR Value2 l=200n w=10u
SYMBOL voltage -448 176 R0
WINDOW 123 0 0 Left 0
WINDOW 39 0 0 Left 0
SYMATTR InstName V1
SYMATTR Value 1.2
SYMBOL voltage -560 176 R0
WINDOW 123 0 0 Left 0
WINDOW 39 0 0 Left 0
SYMATTR InstName V2
SYMATTR Value SINE(850m 10m 100k)
SYMBOL nmos4 176 336 M0
SYMATTR InstName M3
SYMATTR Value n_65
SYMATTR Value2 l=200n w=10u
SYMBOL current 128 224 R0
WINDOW 123 0 0 Left 0
WINDOW 39 0 0 Left 0
SYMATTR InstName I1
SYMATTR Value 5µ
SYMBOL nmos4 640 144 M0
SYMATTR InstName M4
SYMATTR Value n_65
SYMATTR Value2 l=200n w=5u
SYMBOL nmos4 752 336 R0
SYMATTR InstName M5
SYMATTR Value n_65
SYMATTR Value2 l=200n w=5u
SYMBOL nmos4 752 144 R0
SYMATTR InstName M6
SYMATTR Value n_65
SYMATTR Value2 l=200n w=5u
SYMBOL res 576 16 R0
SYMATTR InstName R1
SYMATTR Value 200k
SYMBOL res 784 -16 R0
SYMATTR InstName R2
SYMATTR Value 200k
TEXT -568 352 Left 2 !.include 65nm_bulk.mos
TEXT -424 512 Left 2 !.tran 100u
