Version 4.1
SHEET 1 1128 680
WIRE 336 -112 240 -112
WIRE 448 -112 336 -112
WIRE 240 -64 240 -112
WIRE 448 -64 448 -112
WIRE 336 -48 288 -48
WIRE 400 -48 336 -48
WIRE -336 -16 -336 -64
WIRE 240 -16 176 -16
WIRE 512 -16 448 -16
WIRE -256 0 -288 0
WIRE -336 32 -448 32
WIRE -256 48 -256 0
WIRE 336 48 336 -48
WIRE 336 48 -256 48
WIRE -336 96 -336 80
WIRE -256 96 -256 48
WIRE -256 96 -336 96
WIRE 736 112 736 80
WIRE 864 112 864 80
WIRE 240 192 240 32
WIRE 448 192 448 32
WIRE 736 224 736 192
WIRE 864 224 864 192
WIRE 288 240 240 240
WIRE 448 240 384 240
WIRE -336 272 -336 96
WIRE 16 272 16 240
WIRE 192 272 160 272
WIRE 528 272 496 272
WIRE -336 320 -400 320
WIRE 240 336 240 288
WIRE 336 336 240 336
WIRE 448 336 448 288
WIRE 448 336 336 336
WIRE -656 352 -656 304
WIRE -192 352 -288 352
WIRE -192 368 -192 352
WIRE 16 368 16 352
WIRE 16 368 -192 368
WIRE 80 368 16 368
WIRE 336 368 336 336
WIRE -336 400 -336 368
WIRE 16 416 -32 416
WIRE 384 416 336 416
WIRE 80 448 80 368
WIRE 80 448 64 448
WIRE 288 448 80 448
WIRE -656 480 -656 432
WIRE 16 496 16 464
WIRE 336 496 336 464
FLAG 288 240 0
FLAG 384 240 0
FLAG 384 416 0
FLAG 336 496 0
FLAG -32 416 0
FLAG 16 496 0
FLAG 16 240 vdd
FLAG 160 272 vin+
FLAG 528 272 vin-
FLAG 512 -16 vdd
FLAG 176 -16 vdd
FLAG 336 -112 vdd
FLAG -336 400 0
FLAG -448 32 vdd
FLAG -336 -64 vdd
FLAG -400 320 0
FLAG -656 304 vdd
FLAG -656 480 0
FLAG 736 224 0
FLAG 864 224 0
FLAG 864 80 vin-
FLAG 736 80 vin+
SYMBOL nmos4 192 192 R0
SYMATTR InstName M1
SYMATTR Value n_65
SYMATTR Value2 l=180n w=10u
SYMBOL nmos4 496 192 M0
SYMATTR InstName M2
SYMATTR Value n_65
SYMATTR Value2 l=180n w=10u
SYMBOL nmos4 288 368 R0
SYMATTR InstName M3
SYMATTR Value n_65
SYMATTR Value2 l=300n w=10u
SYMBOL nmos4 64 368 M0
SYMATTR InstName M4
SYMATTR Value n_65
SYMATTR Value2 l=300n w=10u
SYMBOL current 16 272 R0
WINDOW 123 0 0 Left 0
WINDOW 39 0 0 Left 0
SYMATTR InstName I1
SYMATTR Value 5µ
SYMBOL pmos4 400 32 M180
SYMATTR InstName M5
SYMATTR Value p_65
SYMATTR Value2 l=200n w=20u
SYMBOL pmos4 288 32 R180
SYMATTR InstName M6
SYMATTR Value p_65
SYMATTR Value2 l=200n w=20u
SYMBOL nmos4 -288 272 M0
SYMATTR InstName M7
SYMATTR Value n_65
SYMATTR Value2 l=300n w=5u
SYMBOL pmos4 -288 80 R180
SYMATTR InstName M8
SYMATTR Value p_65
SYMATTR Value2 l=200n w=20u
SYMBOL voltage -656 336 R0
WINDOW 123 0 0 Left 0
WINDOW 39 0 0 Left 0
SYMATTR InstName V1
SYMATTR Value 1.2
SYMBOL voltage 736 96 R0
WINDOW 123 0 0 Left 0
WINDOW 39 0 0 Left 0
SYMATTR InstName V2
SYMATTR Value 0.6
SYMBOL voltage 864 96 R0
WINDOW 123 0 0 Left 0
WINDOW 39 0 0 Left 0
SYMATTR InstName V3
SYMATTR Value SINE(0.6 10m 100k)
TEXT -624 528 Left 2 !.include 65nm_bulk.mos
TEXT -616 584 Left 2 !.tran 100u
