Version 4.1
SHEET 1 880 680
TEXT -128 232 Left 2 !.include 65nm_bulk.mos
