Version 4.1
SHEET 1 968 968
WIRE 256 -80 256 -112
WIRE 176 -32 112 -32
WIRE 320 -32 272 -32
WIRE 224 0 224 -32
WIRE 112 64 112 -32
WIRE 160 64 112 64
WIRE 320 64 320 -32
WIRE 320 64 224 64
WIRE 496 80 496 32
WIRE 560 128 496 128
WIRE -96 160 -160 160
WIRE -16 160 -96 160
WIRE 48 160 -16 160
WIRE 112 160 112 64
WIRE 112 160 48 160
WIRE 160 160 112 160
WIRE 320 160 320 64
WIRE 320 160 288 160
WIRE 352 160 320 160
WIRE 448 160 352 160
WIRE -16 176 -16 160
WIRE -160 192 -160 160
WIRE -96 192 -96 160
WIRE 736 192 736 160
WIRE 496 224 496 176
WIRE 560 272 496 272
WIRE -160 288 -160 272
WIRE -96 288 -96 256
WIRE -96 288 -160 288
WIRE -16 288 -16 256
WIRE -16 288 -96 288
WIRE -16 304 -16 288
WIRE 448 304 368 304
WIRE 496 320 496 304
WIRE 496 352 496 320
WIRE 496 352 352 352
WIRE 736 352 736 272
WIRE 736 352 624 352
WIRE 496 368 496 352
WIRE 736 368 736 352
WIRE 352 384 352 352
WIRE 496 416 448 416
WIRE 768 416 736 416
WIRE 624 448 624 352
WIRE 624 448 544 448
WIRE 688 448 624 448
WIRE 352 496 352 448
WIRE 448 496 448 416
WIRE 448 496 352 496
WIRE 496 496 496 464
WIRE 496 496 448 496
WIRE 624 496 496 496
WIRE 736 496 736 464
WIRE 736 496 624 496
WIRE 768 496 768 416
WIRE 768 496 736 496
WIRE 624 544 624 496
WIRE -32 688 -32 640
WIRE 48 688 48 640
WIRE 144 688 144 640
WIRE -32 800 -32 768
WIRE 48 800 48 768
WIRE 144 800 144 768
FLAG 224 0 0
FLAG 256 -112 res
FLAG 144 800 0
FLAG 144 640 res
FLAG 48 160 in
FLAG 352 160 vg
FLAG 48 800 0
FLAG 48 640 vdd
FLAG 736 160 vdd
FLAG 496 32 vdd
FLAG 560 128 0
FLAG 560 272 0
FLAG 368 304 rs
FLAG 624 544 0
FLAG -16 304 0
FLAG 496 352 vout
FLAG -32 800 0
FLAG -32 640 rs
SYMBOL cap 224 48 R90
WINDOW 0 0 32 VBottom 2
WINDOW 3 32 32 VTop 2
SYMATTR InstName C1
SYMATTR Value 0.1p
SYMBOL nmos4 176 -80 M90
SYMATTR InstName M1
SYMATTR Value n_65
SYMATTR Value2 l=65n w=1u
SYMBOL voltage 144 672 R0
WINDOW 123 0 0 Left 0
WINDOW 39 0 0 Left 0
SYMATTR InstName V1
SYMATTR Value PULSE(0 1.2 0 10p 10p 200n 1u 10)
SYMBOL current -16 176 R0
WINDOW 123 0 0 Left 0
WINDOW 39 0 0 Left 0
SYMATTR InstName I1
SYMATTR Value 100n
SYMBOL voltage 48 672 R0
WINDOW 123 0 0 Left 0
WINDOW 39 0 0 Left 0
SYMATTR InstName V2
SYMATTR Value 1.2
SYMBOL nmos4 448 80 R0
SYMATTR InstName M2
SYMATTR Value n_65
SYMATTR Value2 l=65n w=1u
SYMBOL nmos4 544 368 M0
SYMATTR InstName M3
SYMATTR Value n_65
SYMATTR Value2 l=65n w=1u
SYMBOL nmos4 688 368 R0
SYMATTR InstName M4
SYMATTR Value n_65
SYMATTR Value2 l=65n w=1u
SYMBOL current 736 192 R0
WINDOW 123 0 0 Left 0
WINDOW 39 0 0 Left 0
SYMATTR InstName I2
SYMATTR Value 1µ
SYMBOL nmos4 448 224 R0
SYMATTR InstName M5
SYMATTR Value n_65
SYMATTR Value2 l=65n w=1u
SYMBOL cap 336 384 R0
SYMATTR InstName C2
SYMATTR Value 500f
SYMBOL cap -112 192 R0
SYMATTR InstName C3
SYMATTR Value 50f
SYMBOL voltage -32 672 R0
WINDOW 123 0 0 Left 0
WINDOW 39 0 0 Left 0
SYMATTR InstName V3
SYMATTR Value PULSE(0 1.2 0 10p 10p 400n 1u 10)
SYMBOL cascode_amp 208 160 R0
SYMATTR InstName X2
SYMBOL res -176 176 R0
SYMATTR InstName R1
SYMATTR Value 10Meg
TEXT 160 840 Left 2 !.include 65nm_bulk.mos
TEXT 160 904 Left 2 !.tran 10u
TEXT 160 872 Left 2 !.include cascode_amp.sub
TEXT 312 528 Left 2 ;Current mirror biasing
TEXT 8 952 Left 2 ;Control Signals and VDD
LINE Normal 672 336 288 336 2
LINE Normal 672 336 672 336 2
LINE Normal 672 112 672 336 2
LINE Normal 800 112 672 112 2
LINE Normal 816 112 800 112 2
LINE Normal 816 512 816 112 2
LINE Normal 288 336 288 496 2
LINE Normal 288 512 288 496 2
LINE Normal 816 512 288 512 2
RECTANGLE Normal 576 928 -96 592 2
